Circuit: * Microgame Board and Assembler

Fatal Error: To: Missing node(s).
